* C:\Users\Charlie\Documents\GitHub\BGP\BGP_F0\FINAL\CB_BGP_V0.asc
V1 V+ 0 9
V2 N005 0 SINE(0 0.5 1k) AC 1
R3 N006 Vr 1.5Meg
R4 N005 0 390k
C3 N006 N005 0.1µ
J1 V+ N006 N008 J2N5457
C4 N010 N009 10µ
V3 N022 0 SINE(0 0.5 1k) AC 1
R5 N023 Vr 1.5Meg
R7 N022 0 390k
C5 N023 N022 0.1µ
J2 V+ N023 N024 J2N5457
C6 N026 N025 10µ
R6 N011 N010 {R1*2}
R8 N011 Vr {R2*2}
R10 N012 N011 49.9k
R11 N027 N026 {R2*2}
R12 N027 Vr {R1*2}
R14 N012 N027 49.9k
R15 N002 N001 15k
C9 N007 N002 10µ
R16 N017 N018 25k
R19 N019 N017 25k
C10 N019 N018 0.1µ
R20 N017 N003 1.8k
R21 N018 N007 4.7k
R22 N004 N019 4.7k
R23 N028 N007 1k
R24 N021 N028 25k
R25 N029 N021 25k
R26 N004 N029 1k
C11 N021 N003 10n
R34 N013 N004 100
C14 Vn Mo 10µ
R35 Mo N015 100
R36 Vn 0 20k
R37 N007 Vr 47k
R27 N014 Mi 22k
R28 N015 N014 22k
C16 N004 N003 100p
C17 Mi N013 10µ
R31 N030 Mi 20k
R32 Mo N030 1
C7 N030 N031 10n
R39 N031 N032 6.8k
R40 N032 Mr {R1*2}
R41 Mr N033 {R1*2}
R42 N033 Vr 6.8k
C8 Mr Vr 4.7n
C1 N006 0 27p
R30 N024 0 20k
R17 V+ N016 10k
R18 N016 0 10k
C2 N016 0 22µ
R29 N008 0 20k
C12 N023 0 27p
R33 N009 N008 1k
R38 N025 N024 1k
C13 N002 N001 100p
XU1 N016 Vr V+ 0 Vr LT1352
XU2 N012 N001 V+ 0 N002 LT1352
XU3 Vr N003 V+ 0 N004 LT1352
XU5 Mr N014 V+ 0 N015 LT1352
R9 Vr N001 10k
R1 Vn N020 20k
C15 N020 0 100n
R2 Mr Vr 1.5Meg
.model NJF NJF
.model PJF PJF
.lib C:\Users\Charlie\Documents\LTspiceXVII\lib\cmp\standard.jft
.inc ./jfet.lib
;tran 0 100m 0 1u
;ac dec 100 1 100k
* OPA180
* RK0971210Z2M: MOUSER\nPTD902-2215K-B203: DIGIKEY
* MC33178/TS512
.step param Rx list 1 2 3 4 5 6 7 8 9 10 11
.param R1 table(Rx, 1, 1, 2, 6.25k, 3, 12.5k, 4, 18.75k, 5, 25k, 6, 31.25k, 7, 37.5k, 8, 43.75k, 9, 50k)
.param R2 table(Rx, 1, 50k, 2, 43.75k, 3, 37.5k, 4, 31.25k, 5, 25k, 6, 18.75k, 7, 12.5k, 8, 6.25k, 9, 1)
.noise V(Vn) V3 dec 100 1 100k
* SMALL BEAR ELECTRONICS CONCENTRIC POTS
* OPA180
.lib LTC.lib
.backanno
.end
