Version 4
SHEET 1 3072 884
WIRE 960 32 960 0
WIRE 2576 64 2576 32
WIRE 1536 80 1536 64
WIRE 1616 80 1536 80
WIRE 1760 80 1696 80
WIRE 1792 80 1760 80
WIRE 1888 80 1856 80
WIRE 656 96 624 96
WIRE 752 96 720 96
WIRE 848 96 752 96
WIRE 912 96 848 96
WIRE 1536 96 1536 80
WIRE 1760 112 1760 80
WIRE 1888 112 1888 80
WIRE 624 128 624 96
WIRE 752 128 752 96
WIRE 848 128 848 96
WIRE 2288 128 2288 112
WIRE 2400 128 2288 128
WIRE 2496 128 2464 128
WIRE 2528 128 2496 128
WIRE 2288 144 2288 128
WIRE -224 160 -336 160
WIRE -96 160 -224 160
WIRE 960 160 960 128
WIRE 992 160 960 160
WIRE 1088 160 1056 160
WIRE 1120 160 1088 160
WIRE 1232 160 1200 160
WIRE 1248 160 1232 160
WIRE 1328 160 1312 160
WIRE 1488 160 1328 160
WIRE 2496 160 2496 128
WIRE -336 176 -336 160
WIRE 208 176 208 160
WIRE 288 176 208 176
WIRE 208 192 208 176
WIRE 288 192 288 176
WIRE 960 192 960 160
WIRE 1088 192 1088 160
WIRE 1328 192 1328 160
WIRE 1632 192 1536 192
WIRE 2576 192 2576 160
WIRE 2608 192 2576 192
WIRE 2720 192 2688 192
WIRE 2816 192 2784 192
WIRE 2944 192 2816 192
WIRE 1888 208 1888 192
WIRE 1984 208 1888 208
WIRE 2080 208 2048 208
WIRE 2192 208 2080 208
WIRE 2240 208 2192 208
WIRE 2944 208 2944 192
WIRE 624 224 624 208
WIRE 752 224 752 208
WIRE 848 224 848 192
WIRE 1888 224 1888 208
WIRE 2816 224 2816 192
WIRE 2080 240 2080 208
WIRE 2192 240 2192 208
WIRE 2384 240 2288 240
WIRE 2496 256 2496 240
WIRE 2576 256 2576 192
WIRE 208 288 208 272
WIRE 288 288 288 256
WIRE 288 288 208 288
WIRE 960 288 960 272
WIRE 1088 288 1088 272
WIRE 1328 288 1328 272
WIRE 1632 288 1632 272
WIRE 208 304 208 288
WIRE 2944 304 2944 288
WIRE 1760 320 1760 192
WIRE 1792 320 1760 320
WIRE 1888 320 1888 304
WIRE 1888 320 1856 320
WIRE 2816 320 2816 304
WIRE 1888 336 1888 320
WIRE 2080 336 2080 320
WIRE 2192 336 2192 304
WIRE 2384 336 2384 320
WIRE 1536 352 1536 272
WIRE 1632 352 1536 352
WIRE 1536 368 1536 352
WIRE 2944 384 2944 368
WIRE 2288 400 2288 320
WIRE 2384 400 2288 400
WIRE 2576 400 2576 336
WIRE 2576 400 2384 400
WIRE 960 416 960 384
WIRE 2288 416 2288 400
WIRE 1760 432 1760 320
WIRE 1792 432 1760 432
WIRE 1888 432 1888 416
WIRE 1888 432 1856 432
WIRE 1888 448 1888 432
WIRE 656 480 624 480
WIRE 752 480 720 480
WIRE 848 480 752 480
WIRE 912 480 848 480
WIRE 624 512 624 480
WIRE 752 512 752 480
WIRE 848 512 848 480
WIRE 960 544 960 512
WIRE 992 544 960 544
WIRE 1088 544 1056 544
WIRE 1120 544 1088 544
WIRE 1232 544 1232 160
WIRE 1232 544 1200 544
WIRE 1888 544 1888 528
WIRE 960 576 960 544
WIRE 1088 576 1088 544
WIRE 624 608 624 592
WIRE 752 608 752 592
WIRE 848 608 848 576
WIRE 960 672 960 656
WIRE 1088 672 1088 656
FLAG -336 176 0
FLAG -336 80 V+
FLAG -224 80 Vi1
FLAG 208 304 0
FLAG 208 80 V+
FLAG 288 176 Vr
FLAG 1328 288 Vr
FLAG 1536 -16 V+
FLAG 1536 368 0
FLAG 1888 544 0
FLAG 2080 336 Vr
FLAG 2288 32 V+
FLAG 2288 416 0
FLAG 2192 336 0
FLAG 2816 192 Vn
FLAG -96 80 Vi2
FLAG 2496 256 Vr
FLAG 2576 32 V+
FLAG 2816 320 0
FLAG 2944 384 0
FLAG 960 0 V+
FLAG 752 224 Vr
FLAG 848 224 0
FLAG 960 288 0
FLAG 624 224 0
FLAG 624 96 Vi1
FLAG 960 384 V+
FLAG 752 608 Vr
FLAG 848 608 0
FLAG 960 672 0
FLAG 624 608 0
FLAG 624 480 Vi2
FLAG 1088 288 0
FLAG 1088 672 0
SYMBOL voltage -336 64 R0
SYMATTR InstName V1
SYMATTR Value 9
SYMBOL voltage -224 64 R0
WINDOW 123 24 124 Left 2
WINDOW 39 0 0 Left 2
SYMATTR InstName V2
SYMATTR Value SINE(0 0.1 1k)
SYMATTR Value2 AC 1 0
SYMBOL res 192 64 R0
SYMATTR InstName R1
SYMATTR Value 100k
SYMBOL res 192 176 R0
SYMATTR InstName R2
SYMATTR Value 10k
SYMBOL cap 272 192 R0
SYMATTR InstName C1
SYMATTR Value 10µ
SYMBOL res 1072 176 R0
SYMATTR InstName R3
SYMATTR Value 1k
SYMBOL res 1312 176 R0
SYMATTR InstName R4
SYMATTR Value 1Meg
SYMBOL cap 1056 144 R90
WINDOW 0 0 32 VBottom 2
WINDOW 3 32 32 VTop 2
SYMATTR InstName C2
SYMATTR Value 10µ
SYMBOL njf 1488 96 R0
SYMATTR InstName J1
SYMATTR Value J201
SYMBOL res 1520 176 R0
SYMATTR InstName R5
SYMATTR Value 4.99k
SYMBOL res 1520 -32 R0
SYMATTR InstName R6
SYMATTR Value 10k
SYMBOL cap 1616 288 R0
SYMATTR InstName C4
SYMATTR Value 10µ
SYMBOL res 1616 176 R0
SYMATTR InstName R8
SYMATTR Value 1.8k
SYMBOL res 1744 96 R0
SYMATTR InstName R7
SYMATTR Value 10k
SYMBOL res 1872 96 R0
SYMATTR InstName R9
SYMATTR Value {R1/2}
SYMBOL res 1872 208 R0
SYMATTR InstName R10
SYMATTR Value {R2/2}
SYMBOL res 1872 320 R0
SYMATTR InstName R11
SYMATTR Value {R2/2}
SYMBOL res 1872 432 R0
SYMATTR InstName R12
SYMATTR Value 1.5k
SYMBOL cap 1856 64 R90
WINDOW 0 0 32 VBottom 2
WINDOW 3 32 32 VTop 2
SYMATTR InstName C3
SYMATTR Value 2.7n
SYMBOL cap 1856 304 R90
WINDOW 0 0 32 VBottom 2
WINDOW 3 32 32 VTop 2
SYMATTR InstName C5
SYMATTR Value 1µ
SYMBOL cap 1856 416 R90
WINDOW 0 0 32 VBottom 2
WINDOW 3 32 32 VTop 2
SYMATTR InstName C6
SYMATTR Value 470n
SYMBOL cap 2048 192 R90
WINDOW 0 0 32 VBottom 2
WINDOW 3 32 32 VTop 2
SYMATTR InstName C7
SYMATTR Value 0.1µ
SYMBOL res 2064 224 R0
SYMATTR InstName R15
SYMATTR Value 1Meg
SYMBOL njf 2240 144 R0
SYMATTR InstName J2
SYMATTR Value J201
SYMBOL res 2272 224 R0
SYMATTR InstName R16
SYMATTR Value 4.99k
SYMBOL res 2272 16 R0
SYMATTR InstName R17
SYMATTR Value 10k
SYMBOL cap 2368 336 R0
SYMATTR InstName C9
SYMATTR Value 47µ
SYMBOL res 2368 224 R0
SYMATTR InstName R18
SYMATTR Value 1.5k
SYMBOL cap 2784 176 R90
WINDOW 0 0 32 VBottom 2
WINDOW 3 32 32 VTop 2
SYMATTR InstName C8
SYMATTR Value 10µ
SYMBOL res 2800 208 R0
SYMATTR InstName R13
SYMATTR Value 20k
SYMBOL cap 2176 240 R0
SYMATTR InstName C11
SYMATTR Value 270p
SYMBOL res 1712 64 R90
WINDOW 0 0 56 VBottom 2
WINDOW 3 32 56 VTop 2
SYMATTR InstName R14
SYMATTR Value 100
SYMBOL voltage -96 64 R0
WINDOW 123 24 124 Left 2
WINDOW 39 0 0 Left 2
SYMATTR InstName V3
SYMATTR Value SINE(0 0.1 1k)
SYMATTR Value2 AC 1 0
SYMBOL njf 2528 64 R0
SYMATTR InstName J3
SYMATTR Value J201
SYMBOL cap 2464 112 R90
WINDOW 0 0 32 VBottom 2
WINDOW 3 32 32 VTop 2
SYMATTR InstName C12
SYMATTR Value 0.1µ
SYMBOL res 2480 144 R0
SYMATTR InstName R21
SYMATTR Value 1Meg
SYMBOL res 2560 240 R0
SYMATTR InstName R22
SYMATTR Value 4.99k
SYMBOL res 2704 176 R90
WINDOW 0 0 56 VBottom 2
WINDOW 3 32 56 VTop 2
SYMATTR InstName R23
SYMATTR Value 1k
SYMBOL res 2928 192 R0
SYMATTR InstName R24
SYMATTR Value 25k
SYMBOL cap 2928 304 R0
SYMATTR InstName C13
SYMATTR Value 47n
SYMBOL njf 912 32 R0
SYMATTR InstName J4
SYMATTR Value J201
SYMBOL res 944 176 R0
SYMATTR InstName R26
SYMATTR Value 12.5k
SYMBOL res 736 112 R0
SYMATTR InstName R19
SYMATTR Value 1Meg
SYMBOL cap 720 80 R90
WINDOW 0 0 32 VBottom 2
WINDOW 3 32 32 VTop 2
SYMATTR InstName C14
SYMATTR Value 0.1µ
SYMBOL cap 832 128 R0
SYMATTR InstName C15
SYMATTR Value 47p
SYMBOL res 1216 144 R90
WINDOW 0 0 56 VBottom 2
WINDOW 3 32 56 VTop 2
SYMATTR InstName R20
SYMATTR Value 99k
SYMBOL res 608 112 R0
SYMATTR InstName R27
SYMATTR Value 249k
SYMBOL res 1072 560 R0
SYMATTR InstName R28
SYMATTR Value 99k
SYMBOL cap 1056 528 R90
WINDOW 0 0 32 VBottom 2
WINDOW 3 32 32 VTop 2
SYMATTR InstName C16
SYMATTR Value 10µ
SYMBOL njf 912 416 R0
SYMATTR InstName J5
SYMATTR Value J201
SYMBOL res 944 560 R0
SYMATTR InstName R30
SYMATTR Value 12.5k
SYMBOL res 736 496 R0
SYMATTR InstName R31
SYMATTR Value 1Meg
SYMBOL cap 720 464 R90
WINDOW 0 0 32 VBottom 2
WINDOW 3 32 32 VTop 2
SYMATTR InstName C17
SYMATTR Value 0.1µ
SYMBOL cap 832 512 R0
SYMATTR InstName C18
SYMATTR Value 47p
SYMBOL res 1216 528 R90
WINDOW 0 0 56 VBottom 2
WINDOW 3 32 56 VTop 2
SYMATTR InstName R32
SYMATTR Value 1k
SYMBOL res 608 496 R0
SYMATTR InstName R33
SYMATTR Value 249k
SYMBOL cap 1312 144 R90
WINDOW 0 0 32 VBottom 2
WINDOW 3 32 32 VTop 2
SYMATTR InstName C19
SYMATTR Value 0.1µ
TEXT -144 352 Left 2 !.inc ./jfet.lib
TEXT -138 386 Left 2 !.tran 0 100m 0 1u
TEXT -140 416 Left 2 !;ac dec 100 1 100k
TEXT -576 -184 Left 2 !.step param Rx list 1 2 3 4 5 6 7 8 9 10 11\n.param R1 table(Rx, 1, 1, 2, 6.25k, 3, 12.5k, 4, 18.75k, 5, 25k, 6, 31.25k, 7, 37.5k, 8, 43.75k, 9, 50k)\n.param R2 table(Rx, 1, 50k, 2, 43.75k, 3, 37.5k, 4, 31.25k, 5, 25k, 6, 18.75k, 7, 12.5k, 8, 6.25k, 9, 1)
TEXT -144 320 Left 2 !.inc ./jjfet.lib
TEXT -138 448 Left 2 !;noise V(Vn) V2 dec 100 20 200k
