Version 4
SHEET 1 2216 680
WIRE 1088 112 1088 96
WIRE 1200 112 1088 112
WIRE 1312 112 1280 112
WIRE 1376 112 1312 112
WIRE 1488 112 1440 112
WIRE 1488 128 1488 112
WIRE 1312 144 1312 112
WIRE 1920 160 1920 144
WIRE 2032 160 1920 160
WIRE 2128 160 2096 160
WIRE 16 176 16 160
WIRE 128 176 128 160
WIRE 128 176 16 176
WIRE 400 176 400 160
WIRE 496 176 400 176
WIRE 736 176 688 176
WIRE 848 176 800 176
WIRE 944 176 848 176
WIRE 1040 176 944 176
WIRE 16 192 16 176
WIRE 400 192 400 176
WIRE 496 192 496 176
WIRE 688 192 688 176
WIRE 848 192 848 176
WIRE 944 192 944 176
WIRE 2128 192 2128 160
WIRE 1168 208 1088 208
WIRE 1088 224 1088 208
WIRE 1168 224 1168 208
WIRE 1488 224 1488 208
WIRE 1568 224 1488 224
WIRE 1680 224 1632 224
WIRE 1776 224 1680 224
WIRE 1872 224 1776 224
WIRE 1488 240 1488 224
WIRE 1680 240 1680 224
WIRE 1776 240 1776 224
WIRE 2000 256 1920 256
WIRE 1920 272 1920 256
WIRE 2000 272 2000 256
WIRE 400 288 400 272
WIRE 496 288 496 256
WIRE 496 288 400 288
WIRE 688 288 688 272
WIRE 848 288 848 272
WIRE 944 288 944 256
WIRE 2128 288 2128 272
WIRE 400 304 400 288
WIRE 1168 336 1168 304
WIRE 1312 336 1312 224
WIRE 1376 336 1312 336
WIRE 1488 336 1488 320
WIRE 1488 336 1440 336
WIRE 1680 336 1680 320
WIRE 1776 336 1776 304
WIRE 1488 352 1488 336
WIRE 2000 384 2000 352
WIRE 1088 432 1088 304
WIRE 1168 432 1168 400
WIRE 1168 432 1088 432
WIRE 1088 448 1088 432
WIRE 1312 448 1312 336
WIRE 1376 448 1312 448
WIRE 1488 448 1488 432
WIRE 1488 448 1440 448
WIRE 1488 464 1488 448
WIRE 1920 480 1920 352
WIRE 2000 480 2000 448
WIRE 2000 480 1920 480
WIRE 1920 496 1920 480
WIRE 1488 560 1488 544
FLAG 16 192 0
FLAG 16 80 V+
FLAG 128 80 Vi
FLAG 400 80 V+
FLAG 496 176 Vr
FLAG 400 304 0
FLAG 944 288 0
FLAG 688 288 0
FLAG 848 288 Vr
FLAG 1088 16 V+
FLAG 688 176 Vi
FLAG 1088 448 0
FLAG 1488 560 0
FLAG 1776 336 0
FLAG 1680 336 Vr
FLAG 1920 64 V+
FLAG 1920 496 0
FLAG 2128 288 0
SYMBOL voltage 16 64 R0
SYMATTR InstName V1
SYMATTR Value 9
SYMBOL voltage 128 64 R0
SYMATTR InstName V2
SYMATTR Value SINE(0 0.7 1k)
SYMATTR Value2 AC 1 0
SYMBOL res 384 64 R0
SYMATTR InstName R1
SYMATTR Value 100k
SYMBOL res 384 176 R0
SYMATTR InstName R2
SYMATTR Value 10k
SYMBOL cap 480 192 R0
SYMATTR InstName C1
SYMATTR Value 47µ
SYMBOL res 672 176 R0
SYMATTR InstName R3
SYMATTR Value 249k
SYMBOL cap 800 160 R90
WINDOW 0 0 32 VBottom 2
WINDOW 3 32 32 VTop 2
SYMATTR InstName C2
SYMATTR Value 0.1µ
SYMBOL res 832 176 R0
SYMATTR InstName R4
SYMATTR Value 1Meg
SYMBOL cap 928 192 R0
SYMATTR InstName C3
SYMATTR Value 27p
SYMBOL njf 1040 112 R0
SYMATTR InstName J1
SYMATTR Value J201
SYMBOL res 1072 0 R0
SYMATTR InstName R5
SYMATTR Value 10k
SYMBOL res 1072 208 R0
SYMATTR InstName R6
SYMATTR Value 4k
SYMBOL cap 1152 336 R0
SYMATTR InstName C4
SYMATTR Value 47µ
SYMBOL res 1296 128 R0
SYMATTR InstName R7
SYMATTR Value 10k
SYMBOL res 1152 208 R0
SYMATTR InstName R8
SYMATTR Value 2k
SYMBOL res 1296 96 R90
WINDOW 0 0 56 VBottom 2
WINDOW 3 32 56 VTop 2
SYMATTR InstName R9
SYMATTR Value 100
SYMBOL cap 1440 96 R90
WINDOW 0 0 32 VBottom 2
WINDOW 3 32 32 VTop 2
SYMATTR InstName C5
SYMATTR Value 2n
SYMBOL cap 1440 320 R90
WINDOW 0 0 32 VBottom 2
WINDOW 3 32 32 VTop 2
SYMATTR InstName C6
SYMATTR Value 1µ
SYMBOL cap 1440 432 R90
WINDOW 0 0 32 VBottom 2
WINDOW 3 32 32 VTop 2
SYMATTR InstName C7
SYMATTR Value 0.47µ
SYMBOL res 1472 112 R0
SYMATTR InstName R10
SYMATTR Value 25k
SYMBOL res 1472 224 R0
SYMATTR InstName R11
SYMATTR Value 1
SYMBOL res 1472 336 R0
SYMATTR InstName R12
SYMATTR Value 1
SYMBOL res 1472 448 R0
SYMATTR InstName R13
SYMATTR Value 1.5k
SYMBOL cap 1632 208 R90
WINDOW 0 0 32 VBottom 2
WINDOW 3 32 32 VTop 2
SYMATTR InstName C8
SYMATTR Value 0.1µ
SYMBOL res 1664 224 R0
SYMATTR InstName R14
SYMATTR Value 1Meg
SYMBOL cap 1760 240 R0
SYMATTR InstName C9
SYMATTR Value 27p
SYMBOL njf 1872 160 R0
SYMATTR InstName J2
SYMATTR Value J201
SYMBOL res 1904 48 R0
SYMATTR InstName R15
SYMATTR Value 10k
SYMBOL res 1904 256 R0
SYMATTR InstName R16
SYMATTR Value 4k
SYMBOL cap 1984 384 R0
SYMATTR InstName C10
SYMATTR Value 47µ
SYMBOL res 1984 256 R0
SYMATTR InstName R17
SYMATTR Value 6k
SYMBOL cap 2096 144 R90
WINDOW 0 0 32 VBottom 2
WINDOW 3 32 32 VTop 2
SYMATTR InstName C11
SYMATTR Value 10µ
SYMBOL res 2112 176 R0
SYMATTR InstName R18
SYMATTR Value 10k
TEXT -18 362 Left 2 !;tran 0 10m 0 1u
TEXT -16 392 Left 2 !.inc ./jjfet.lib
TEXT -16 424 Left 2 !.inc ./jfet.lib
TEXT -20 584 Left 2 !.ac dec 100 1 100k
