Version 4
SHEET 1 880 680
WIRE -64 -48 -128 -48
WIRE 32 -48 0 -48
WIRE 144 -48 32 -48
WIRE -128 0 -128 -48
WIRE 32 0 32 -48
WIRE 192 0 192 -16
WIRE -128 96 -128 80
WIRE 32 96 32 80
WIRE 192 96 192 80
WIRE 352 96 192 96
WIRE 464 96 416 96
WIRE 464 128 464 96
WIRE -464 160 -464 144
WIRE -368 160 -368 144
WIRE -368 160 -464 160
WIRE 144 160 128 160
WIRE -464 176 -464 160
WIRE -368 176 -368 160
WIRE 192 208 192 192
WIRE 464 224 464 208
WIRE 128 288 128 160
WIRE 192 288 128 288
FLAG -368 176 0
FLAG -464 64 V+
FLAG -464 256 V-
FLAG -368 64 Vi
FLAG 32 96 0
FLAG -128 96 0
FLAG 192 288 V-
FLAG 192 -112 V+
FLAG -128 -48 Vi
FLAG 464 224 0
FLAG 464 96 Vn
SYMBOL njf 144 96 R0
SYMATTR InstName J1
SYMATTR Value J2SK208
SYMBOL njf 144 -112 R0
SYMATTR InstName J2
SYMATTR Value J2SK208
SYMBOL res 176 -16 R0
SYMATTR InstName R1
SYMATTR Value 100
SYMBOL res 176 192 R0
SYMATTR InstName R2
SYMATTR Value 20k
SYMBOL voltage -464 160 R0
SYMATTR InstName V1
SYMATTR Value 4.5
SYMBOL voltage -464 48 R0
SYMATTR InstName V2
SYMATTR Value 4.5
SYMBOL voltage -368 48 R0
WINDOW 123 24 124 Left 2
WINDOW 39 0 0 Left 2
SYMATTR InstName V3
SYMATTR Value SINE(0 1 1k)
SYMATTR Value2 AC 1 0
SYMBOL res 16 -16 R0
SYMATTR InstName R3
SYMATTR Value 1.5Meg
SYMBOL cap 0 -64 R90
WINDOW 0 0 32 VBottom 2
WINDOW 3 32 32 VTop 2
SYMATTR InstName C1
SYMATTR Value 0.1µ
SYMBOL res -144 -16 R0
SYMATTR InstName R4
SYMATTR Value 390k
SYMBOL cap 416 80 R90
WINDOW 0 0 32 VBottom 2
WINDOW 3 32 32 VTop 2
SYMATTR InstName C2
SYMATTR Value 10µ
SYMBOL res 448 112 R0
SYMATTR InstName R5
SYMATTR Value 50k
TEXT -464 -192 Left 2 !.inc ./jjfet.lib
TEXT -498 350 Left 2 !;tran 0 100m 0 1u
TEXT -500 370 Left 2 !;noise V(Vn) V3 dec 101 20 20k
