* C:\Users\Charlie\Documents\GitHub\BGP\BGP_MM\FINAL\CB_BGP_V0.asc
V1 V+ 0 9
V2 N013 0 SINE(0 0.5 1k) AC 1 Rser=2k
C4 N017 N016 1µ
C14 Vn N021 10µ
R35 N021 Mo 1K
R36 Vn 0 100k
R27 N012 Mi 22k
R28 Mo N012 22k
C17 Mi BT_0 10µ
R31 N022 Mi 10k
R32 Mo N022 10k
C7 N022 N023 22n
R39 N023 N024 4.7k
R40 N024 Mr {R1*2}
R41 Mr N025 {R1*2}
R42 N025 Vr 4.7k
C8 Mr Vr 10n
R17 V+ N018 10k
R18 N018 0 10k
C2 N018 0 22µ
XU1 N018 Vr V+ 0 Vr LT1352
XU2 Vr N011 V+ 0 BT_0 LT1352
XU5 Mr N012 V+ 0 Mo LT1352
R2 Mr Vr 100k
R13 N023 Mr 100k
C18 Mo N012 100p
R5 N011 N017 220k
R6 N011 N019 {R1*5}
R7 N020 N011 {R2*5}
R9 Vr V+ 100k
R10 0 Vr 100k
C5 Vr 0 10µ
C6 V+ 0 10µ
C9 N019 N017 1.8n
C10 BT_0 N020 470p
C11 BT_0 N011 100p
R8 N010 N011 100k
R11 N010 BT_0 {R2}
J1 V+ N014 N015 J202
R1 N015 0 20k
R3 N014 0 1Meg
R4 N013 0 220k
C1 N014 N013 0.1µ
R14 N016 N015 100
C3 N006 N005 1µ
XU3 Vr N003 V+ 0 N004 LT1352
R15 N003 N006 220k
R16 N003 N007 {R1*10}
R19 N008 N003 {R2*10}
C15 N007 N006 1.8n
C16 N004 N008 470p
C19 N004 N003 100p
C20 N004 N002 47n
R20 N002 N003 100k
R21 N002 N004 {R2}
R22 N002 N001 10k
C21 N001 0 10µ
V3 N005 0 SINE(0 0.5 1k) AC 1 Rser=2k
R12 N010 N009 3.3k
C12 N009 0 10µ
C13 N010 BT_0 100n
.model NJF NJF
.model PJF PJF
.lib C:\Users\Charlie\Documents\LTspiceXVII\lib\cmp\standard.jft
.inc ./jfet.lib
;tran 0 100m 0 1u
.ac dec 100 1 1meg
.step param Rx list 1 2 3 4 5 6 7 8 9 10 11
.param R1 table(Rx, 1, 1, 2, 10k, 3, 20k, 4, 30k, 5, 40k, 6, 50k, 7, 60k, 8, 70k, 9, 80k, 10, 90k, 11, 100k)
.param R2 table(Rx, 1, 100k, 2, 90k, 3, 80k, 4, 70k, 5, 60k, 6, 50k, 7, 40k, 8, 30k, 9, 20k, 10, 10k, 11, 1)
.param R3 table(Rx, 1, 20k, 2, 10k, 3, 5k, 4, 2.5k, 5, 160, 6, 80, 7, 400, 8, 20, 9, 1)
;noise V(Vn) V2 dec 100 1 100k
* OPA180
.lib LTC.lib
.backanno
.end
