Version 4
SHEET 1 5112 4608
WIRE 1616 -960 1600 -960
WIRE 1712 -960 1680 -960
WIRE 1808 -960 1792 -960
WIRE 1744 -864 1600 -864
WIRE 1808 -864 1808 -960
WIRE 1808 -864 1744 -864
WIRE 1600 -848 1600 -864
WIRE 1744 -848 1744 -864
WIRE 1808 -848 1808 -864
WIRE 1600 -720 1600 -768
WIRE 1632 -720 1600 -720
WIRE 1744 -720 1744 -784
WIRE 1744 -720 1696 -720
WIRE 1808 -720 1808 -768
WIRE 1808 -720 1744 -720
WIRE 1040 -624 928 -624
WIRE 1120 -624 1104 -624
WIRE 1152 -624 1120 -624
WIRE 1360 -624 1232 -624
WIRE 1600 -624 1600 -720
WIRE 1600 -624 1360 -624
WIRE 1648 -624 1600 -624
WIRE 1744 -608 1744 -720
WIRE 1744 -608 1712 -608
WIRE 1776 -608 1744 -608
WIRE 928 -592 928 -624
WIRE 1648 -592 1632 -592
WIRE 928 -480 928 -512
WIRE 1120 -384 1120 -624
WIRE 1168 -384 1120 -384
WIRE 1264 -384 1232 -384
WIRE 1360 -384 1360 -624
WIRE 1360 -384 1344 -384
WIRE 1376 -384 1360 -384
WIRE 1488 -384 1456 -384
WIRE 1744 -384 1744 -608
WIRE 1744 -384 1552 -384
WIRE 1600 -224 1584 -224
WIRE 1696 -224 1664 -224
WIRE 1792 -224 1776 -224
WIRE 1728 -128 1584 -128
WIRE 1792 -128 1792 -224
WIRE 1792 -128 1728 -128
WIRE 1584 -112 1584 -128
WIRE 1728 -112 1728 -128
WIRE 1792 -112 1792 -128
WIRE 848 -16 848 -32
WIRE 1584 16 1584 -32
WIRE 1616 16 1584 16
WIRE 1728 16 1728 -48
WIRE 1728 16 1680 16
WIRE 1792 16 1792 -32
WIRE 1792 16 1728 16
WIRE 2160 32 2144 32
WIRE 2272 32 2224 32
WIRE 576 48 384 48
WIRE 624 48 576 48
WIRE 720 48 688 48
WIRE 800 48 720 48
WIRE 176 64 -96 64
WIRE 384 64 384 48
WIRE -192 80 -336 80
WIRE 176 80 176 64
WIRE 576 80 576 48
WIRE 720 80 720 48
WIRE 848 112 848 80
WIRE 896 112 848 112
WIRE 1024 112 976 112
WIRE 1104 112 1088 112
WIRE 1136 112 1104 112
WIRE 1344 112 1216 112
WIRE 1584 112 1584 16
WIRE 1584 112 1344 112
WIRE 1632 112 1584 112
WIRE 1728 128 1728 16
WIRE 1728 128 1696 128
WIRE 1760 128 1728 128
WIRE 2032 128 2000 128
WIRE 2048 128 2032 128
WIRE 2144 128 2144 32
WIRE 2144 128 2128 128
WIRE 2160 128 2144 128
WIRE 2272 128 2272 32
WIRE 2272 128 2240 128
WIRE 848 144 848 112
WIRE 1632 144 1616 144
WIRE -336 160 -336 80
WIRE -288 160 -336 160
WIRE -192 176 -192 80
WIRE -192 176 -224 176
WIRE -160 176 -192 176
WIRE -96 176 -96 144
WIRE -96 176 -128 176
WIRE 0 176 -96 176
WIRE 384 176 384 144
WIRE 576 176 576 160
WIRE 720 176 720 160
WIRE -288 192 -368 192
WIRE 176 192 176 160
WIRE -96 208 -96 176
WIRE 0 208 0 176
WIRE 848 240 848 224
WIRE -368 304 -368 192
WIRE -128 304 -128 176
WIRE -128 304 -368 304
WIRE -96 304 -96 288
WIRE 0 304 0 272
WIRE 0 304 -96 304
WIRE -96 320 -96 304
WIRE 1104 352 1104 112
WIRE 1152 352 1104 352
WIRE 1248 352 1216 352
WIRE 1344 352 1344 112
WIRE 1344 352 1328 352
WIRE 1360 352 1344 352
WIRE 1472 352 1440 352
WIRE 1728 352 1728 128
WIRE 1728 352 1536 352
WIRE 2144 352 2144 128
WIRE 2176 352 2144 352
WIRE 2272 352 2272 128
WIRE 2272 368 2272 352
WIRE 2272 368 2240 368
WIRE 2320 368 2272 368
WIRE 2416 368 2400 368
WIRE 2512 368 2480 368
WIRE 2176 384 2144 384
WIRE 2192 384 2176 384
WIRE 2144 400 2144 384
WIRE 2512 400 2512 368
WIRE 2144 496 2144 480
WIRE 2512 496 2512 480
WIRE 1344 560 1200 560
WIRE 1344 576 1344 560
WIRE 1344 688 1344 656
WIRE 1408 688 1344 688
WIRE 1200 704 1200 560
WIRE 1344 704 1344 688
WIRE 1408 704 1408 688
WIRE 2352 800 2336 800
WIRE 2448 800 2432 800
WIRE 2464 800 2448 800
WIRE 1200 816 1200 768
WIRE 1344 816 1344 784
WIRE 1344 816 1200 816
WIRE 1408 816 1408 768
WIRE 1408 816 1344 816
WIRE 1344 832 1344 816
WIRE 2448 864 2448 800
WIRE 2448 976 2448 928
WIRE 2448 976 2352 976
WIRE 2448 992 2448 976
WIRE 2352 1088 2352 976
WIRE 2448 1088 2448 1072
WIRE 2352 1184 2352 1168
WIRE 2448 1184 2448 1168
WIRE 2448 1184 2352 1184
WIRE 2560 1184 2448 1184
WIRE 2448 1200 2448 1184
WIRE 2560 1200 2560 1184
WIRE 2448 1296 2448 1280
WIRE 2448 1392 2448 1376
WIRE 2560 1392 2560 1264
WIRE 2560 1392 2448 1392
WIRE 2448 1408 2448 1392
FLAG 384 176 0
FLAG 1664 96 V+
FLAG 2512 496 0
FLAG 2512 368 Vn
FLAG 2208 336 V+
FLAG 176 64 V+
FLAG 176 192 0
FLAG 2144 384 Mr
FLAG 2032 128 Mi
FLAG 2544 800 Mo
FLAG 2336 800 Mi
FLAG 2560 1184 Mr
FLAG -96 320 0
FLAG -256 144 V+
FLAG -160 176 Vr
FLAG 2448 1408 Vr
FLAG -256 208 0
FLAG 1664 160 0
FLAG 2208 400 0
FLAG 2144 496 Vr
FLAG 2272 352 Mo
FLAG 1760 128 BT_0
FLAG 1936 128 BT_0
FLAG 1344 560 V+
FLAG 1344 832 0
FLAG 1408 688 Vr
FLAG 1616 144 Vr
FLAG 576 176 0
FLAG 720 176 0
FLAG 848 240 0
FLAG 848 -32 V+
FLAG 1680 -640 V+
FLAG 1680 -576 0
FLAG 1632 -592 Vr
FLAG 1600 -960 0
FLAG 928 -480 0
FLAG 1584 -224 0
SYMBOL voltage 176 64 R0
WINDOW 123 0 0 Left 2
WINDOW 39 0 0 Left 2
SYMATTR InstName V1
SYMATTR Value 9
SYMBOL voltage 384 48 R0
WINDOW 123 24 124 Left 2
WINDOW 39 24 152 Left 2
SYMATTR Value2 AC 1
SYMATTR SpiceLine Rser=2k
SYMATTR InstName V2
SYMATTR Value SINE(0 0.5 1k)
SYMBOL cap 1088 96 R90
WINDOW 0 0 32 VBottom 2
WINDOW 3 32 32 VTop 2
SYMATTR InstName C4
SYMATTR Value 1µ
SYMBOL cap 2480 352 R90
WINDOW 0 0 32 VBottom 2
WINDOW 3 32 32 VTop 2
SYMATTR InstName C14
SYMATTR Value 10µ
SYMBOL res 2416 352 R90
WINDOW 0 0 56 VBottom 2
WINDOW 3 32 56 VTop 2
SYMATTR InstName R35
SYMATTR Value 1K
SYMBOL res 2496 384 R0
SYMATTR InstName R36
SYMATTR Value 100k
SYMBOL res 2144 112 R90
WINDOW 0 0 56 VBottom 2
WINDOW 3 32 56 VTop 2
SYMATTR InstName R27
SYMATTR Value 22k
SYMBOL res 2256 112 R90
WINDOW 0 0 56 VBottom 2
WINDOW 3 32 56 VTop 2
SYMATTR InstName R28
SYMATTR Value 22k
SYMBOL cap 2000 112 R90
WINDOW 0 0 32 VBottom 2
WINDOW 3 32 32 VTop 2
SYMATTR InstName C17
SYMATTR Value 10µ
SYMBOL res 2448 784 R90
WINDOW 0 0 56 VBottom 2
WINDOW 3 32 56 VTop 2
SYMATTR InstName R31
SYMATTR Value 10k
SYMBOL res 2560 784 R90
WINDOW 0 0 56 VBottom 2
WINDOW 3 32 56 VTop 2
SYMATTR InstName R32
SYMATTR Value 10k
SYMBOL cap 2432 864 R0
SYMATTR InstName C7
SYMATTR Value 22n
SYMBOL res 2432 976 R0
SYMATTR InstName R39
SYMATTR Value 4.7k
SYMBOL res 2432 1072 R0
SYMATTR InstName R40
SYMATTR Value {R1*2}
SYMBOL res 2432 1184 R0
SYMATTR InstName R41
SYMATTR Value {R1*2}
SYMBOL res 2432 1280 R0
SYMATTR InstName R42
SYMATTR Value 4.7k
SYMBOL cap 2544 1200 R0
SYMATTR InstName C8
SYMATTR Value 10n
SYMBOL res -112 48 R0
SYMATTR InstName R17
SYMATTR Value 10k
SYMBOL res -112 192 R0
SYMATTR InstName R18
SYMATTR Value 10k
SYMBOL cap -16 208 R0
SYMATTR InstName C2
SYMATTR Value 22µ
SYMBOL Opamps\\LT1352 -256 112 R0
SYMATTR InstName U1
SYMBOL Opamps\\LT1352 1664 64 R0
SYMATTR InstName U2
SYMBOL Opamps\\LT1352 2208 304 R0
SYMATTR InstName U5
SYMBOL res 2128 384 R0
SYMATTR InstName R2
SYMATTR Value 100k
SYMBOL res 2336 1072 R0
SYMATTR InstName R13
SYMATTR Value 100k
SYMBOL cap 2224 16 R90
WINDOW 0 0 32 VBottom 2
WINDOW 3 32 32 VTop 2
SYMATTR InstName C18
SYMATTR Value 100p
SYMBOL res 1232 96 R90
WINDOW 0 0 56 VBottom 2
WINDOW 3 32 56 VTop 2
SYMATTR InstName R5
SYMATTR Value 220k
SYMBOL res 1344 336 R90
WINDOW 0 0 56 VBottom 2
WINDOW 3 32 56 VTop 2
SYMATTR InstName R6
SYMATTR Value {R1*10}
SYMBOL res 1456 336 R90
WINDOW 0 0 56 VBottom 2
WINDOW 3 32 56 VTop 2
SYMATTR InstName R7
SYMATTR Value {R2*10}
SYMBOL res 1360 672 R180
WINDOW 0 36 76 Left 2
WINDOW 3 36 40 Left 2
SYMATTR InstName R9
SYMATTR Value 100k
SYMBOL res 1360 800 R180
WINDOW 0 36 76 Left 2
WINDOW 3 36 40 Left 2
SYMATTR InstName R10
SYMATTR Value 100k
SYMBOL cap 1392 704 R0
SYMATTR InstName C5
SYMATTR Value 10µ
SYMBOL cap 1184 704 R0
SYMATTR InstName C6
SYMATTR Value 10µ
SYMBOL cap 1216 336 R90
WINDOW 0 0 32 VBottom 2
WINDOW 3 32 32 VTop 2
SYMATTR InstName C9
SYMATTR Value 1.8n
SYMBOL cap 1536 336 R90
WINDOW 0 0 32 VBottom 2
WINDOW 3 32 32 VTop 2
SYMATTR InstName C10
SYMATTR Value 470p
SYMBOL cap 1680 0 R90
WINDOW 0 0 32 VBottom 2
WINDOW 3 32 32 VTop 2
SYMATTR InstName C11
SYMATTR Value 100p
SYMBOL res 1568 -128 R0
SYMATTR InstName R8
SYMATTR Value 100k
SYMBOL res 1776 -128 R0
SYMATTR InstName R11
SYMATTR Value {R2}
SYMBOL njf 800 -16 R0
SYMATTR InstName J1
SYMATTR Value J202
SYMBOL res 832 128 R0
SYMATTR InstName R1
SYMATTR Value 20k
SYMBOL res 704 64 R0
SYMATTR InstName R3
SYMATTR Value 1Meg
SYMBOL res 560 64 R0
SYMATTR InstName R4
SYMATTR Value 220k
SYMBOL cap 688 32 R90
WINDOW 0 0 32 VBottom 2
WINDOW 3 32 32 VTop 2
SYMATTR InstName C1
SYMATTR Value 0.1µ
SYMBOL res 992 96 R90
WINDOW 0 0 56 VBottom 2
WINDOW 3 32 56 VTop 2
SYMATTR InstName R14
SYMATTR Value 100
SYMBOL cap 1104 -640 R90
WINDOW 0 0 32 VBottom 2
WINDOW 3 32 32 VTop 2
SYMATTR InstName C3
SYMATTR Value 1µ
SYMBOL Opamps\\LT1352 1680 -672 R0
SYMATTR InstName U3
SYMBOL res 1248 -640 R90
WINDOW 0 0 56 VBottom 2
WINDOW 3 32 56 VTop 2
SYMATTR InstName R15
SYMATTR Value 220k
SYMBOL res 1360 -400 R90
WINDOW 0 0 56 VBottom 2
WINDOW 3 32 56 VTop 2
SYMATTR InstName R16
SYMATTR Value {R1*10}
SYMBOL res 1472 -400 R90
WINDOW 0 0 56 VBottom 2
WINDOW 3 32 56 VTop 2
SYMATTR InstName R19
SYMATTR Value {R2*10}
SYMBOL cap 1232 -400 R90
WINDOW 0 0 32 VBottom 2
WINDOW 3 32 32 VTop 2
SYMATTR InstName C15
SYMATTR Value 1.8n
SYMBOL cap 1552 -400 R90
WINDOW 0 0 32 VBottom 2
WINDOW 3 32 32 VTop 2
SYMATTR InstName C16
SYMATTR Value 470p
SYMBOL cap 1696 -736 R90
WINDOW 0 0 32 VBottom 2
WINDOW 3 32 32 VTop 2
SYMATTR InstName C19
SYMATTR Value 100p
SYMBOL cap 1760 -784 R180
WINDOW 0 24 56 Left 2
WINDOW 3 24 8 Left 2
SYMATTR InstName C20
SYMATTR Value 47n
SYMBOL res 1584 -864 R0
SYMATTR InstName R20
SYMATTR Value 100k
SYMBOL res 1792 -864 R0
SYMATTR InstName R21
SYMATTR Value {R2}
SYMBOL res 1808 -976 R90
WINDOW 0 0 56 VBottom 2
WINDOW 3 32 56 VTop 2
SYMATTR InstName R22
SYMATTR Value 10k
SYMBOL cap 1680 -976 R90
WINDOW 0 0 32 VBottom 2
WINDOW 3 32 32 VTop 2
SYMATTR InstName C21
SYMATTR Value 10µ
SYMBOL voltage 928 -608 R0
WINDOW 123 24 124 Left 2
WINDOW 39 24 152 Left 2
SYMATTR Value2 AC 1
SYMATTR SpiceLine Rser=2k
SYMATTR InstName V3
SYMATTR Value SINE(0 0.5 1k)
SYMBOL res 1792 -240 R90
WINDOW 0 0 56 VBottom 2
WINDOW 3 32 56 VTop 2
SYMATTR InstName R12
SYMATTR Value 3.3k
SYMBOL cap 1664 -240 R90
WINDOW 0 0 32 VBottom 2
WINDOW 3 32 32 VTop 2
SYMATTR InstName C12
SYMATTR Value 10µ
SYMBOL cap 1712 -112 R0
SYMATTR InstName C13
SYMATTR Value 100n
TEXT 112 -128 Left 2 !.inc ./jfet.lib
TEXT 136 712 Left 2 !;tran 0 100m 0 1u
TEXT 136 744 Left 2 !.ac dec 100 1 1meg
TEXT 2112 -128 Left 2 !.step param Rx list 1 2 3 4 5 6 7 8 9 10 11\n.param R1 table(Rx, 1, 1, 2, 10k, 3, 20k, 4, 30k, 5, 40k, 6, 50k, 7, 60k, 8, 70k, 9, 80k, 10, 90k, 11, 100k)\n.param R2 table(Rx, 1, 100k, 2, 90k, 3, 80k, 4, 70k, 5, 60k, 6, 50k, 7, 40k, 8, 30k, 9, 20k, 10, 10k, 11, 1)\n.param R3 table(Rx, 1, 20k, 2, 10k, 3, 5k, 4, 2.5k, 5, 160, 6, 80, 7, 400, 8, 20, 9, 1)
TEXT 136 776 Left 2 !;noise V(Vn) V2 dec 100 1 100k
TEXT -280 264 Left 2 ;OPA180
