Version 4
SHEET 1 5112 4608
WIRE 1600 -896 1584 -896
WIRE 1696 -896 1664 -896
WIRE 1792 -896 1776 -896
WIRE 1728 -800 1584 -800
WIRE 1792 -800 1792 -896
WIRE 1792 -800 1728 -800
WIRE 1584 -784 1584 -800
WIRE 1728 -784 1728 -800
WIRE 1792 -784 1792 -800
WIRE 1584 -656 1584 -704
WIRE 1616 -656 1584 -656
WIRE 1728 -656 1728 -720
WIRE 1728 -656 1680 -656
WIRE 1792 -656 1792 -704
WIRE 1792 -656 1728 -656
WIRE 1024 -560 896 -560
WIRE 1104 -560 1088 -560
WIRE 1136 -560 1104 -560
WIRE 1344 -560 1216 -560
WIRE 1584 -560 1584 -656
WIRE 1584 -560 1344 -560
WIRE 1632 -560 1584 -560
WIRE 1728 -544 1728 -656
WIRE 1728 -544 1696 -544
WIRE 1760 -544 1728 -544
WIRE 1632 -528 1616 -528
WIRE 896 -512 896 -560
WIRE 896 -400 896 -432
WIRE 1104 -320 1104 -560
WIRE 1152 -320 1104 -320
WIRE 1248 -320 1216 -320
WIRE 1344 -320 1344 -560
WIRE 1344 -320 1328 -320
WIRE 1360 -320 1344 -320
WIRE 1472 -320 1440 -320
WIRE 1728 -320 1728 -544
WIRE 1728 -320 1536 -320
WIRE 1600 -224 1584 -224
WIRE 1696 -224 1664 -224
WIRE 1792 -224 1776 -224
WIRE 1728 -128 1584 -128
WIRE 1792 -128 1792 -224
WIRE 1792 -128 1728 -128
WIRE 1936 -128 1792 -128
WIRE 1584 -112 1584 -128
WIRE 1728 -112 1728 -128
WIRE 1792 -112 1792 -128
WIRE 1936 -112 1936 -128
WIRE 848 -16 848 -32
WIRE 1584 16 1584 -32
WIRE 1616 16 1584 16
WIRE 1728 16 1728 -48
WIRE 1728 16 1680 16
WIRE 1792 16 1792 -32
WIRE 1792 16 1728 16
WIRE 1936 16 1936 -32
WIRE 1936 16 1792 16
WIRE 2160 32 2144 32
WIRE 2272 32 2224 32
WIRE 576 48 384 48
WIRE 624 48 576 48
WIRE 720 48 688 48
WIRE 800 48 720 48
WIRE 384 64 384 48
WIRE 2704 64 2688 64
WIRE 2800 64 2784 64
WIRE 2816 64 2800 64
WIRE 176 80 176 64
WIRE 576 80 576 48
WIRE 720 80 720 48
WIRE 848 112 848 80
WIRE 896 112 848 112
WIRE 1024 112 976 112
WIRE 1104 112 1088 112
WIRE 1136 112 1104 112
WIRE 1344 112 1216 112
WIRE 1584 112 1584 16
WIRE 1584 112 1344 112
WIRE 1632 112 1584 112
WIRE 1728 128 1728 16
WIRE 1728 128 1696 128
WIRE 1760 128 1728 128
WIRE 2032 128 2000 128
WIRE 2048 128 2032 128
WIRE 2144 128 2144 32
WIRE 2144 128 2128 128
WIRE 2160 128 2144 128
WIRE 2272 128 2272 32
WIRE 2272 128 2240 128
WIRE 2800 128 2800 64
WIRE 848 144 848 112
WIRE 1632 144 1616 144
WIRE 384 176 384 144
WIRE 576 176 576 160
WIRE 720 176 720 160
WIRE 176 192 176 160
WIRE 848 240 848 224
WIRE 2800 240 2800 192
WIRE 2800 240 2704 240
WIRE 2800 256 2800 240
WIRE 1104 352 1104 112
WIRE 1152 352 1104 352
WIRE 1248 352 1216 352
WIRE 1344 352 1344 112
WIRE 1344 352 1328 352
WIRE 1360 352 1344 352
WIRE 1472 352 1440 352
WIRE 1728 352 1728 128
WIRE 1728 352 1536 352
WIRE 2144 352 2144 128
WIRE 2176 352 2144 352
WIRE 2272 352 2272 128
WIRE 2704 352 2704 240
WIRE 2800 352 2800 336
WIRE 2272 368 2272 352
WIRE 2272 368 2240 368
WIRE 2320 368 2272 368
WIRE 2416 368 2400 368
WIRE 2512 368 2480 368
WIRE 2176 384 2144 384
WIRE 2192 384 2176 384
WIRE 2144 400 2144 384
WIRE 2512 400 2512 368
WIRE 2704 448 2704 432
WIRE 2800 448 2800 432
WIRE 2800 448 2704 448
WIRE 2912 448 2800 448
WIRE 2800 464 2800 448
WIRE 2912 464 2912 448
WIRE 2144 496 2144 480
WIRE 2512 496 2512 480
WIRE 1344 560 1200 560
WIRE 2800 560 2800 544
WIRE 1344 576 1344 560
WIRE 2800 656 2800 640
WIRE 2912 656 2912 528
WIRE 2912 656 2800 656
WIRE 2800 672 2800 656
WIRE 1344 688 1344 656
WIRE 1408 688 1344 688
WIRE 1200 704 1200 560
WIRE 1344 704 1344 688
WIRE 1408 704 1408 688
WIRE 1200 816 1200 768
WIRE 1344 816 1344 784
WIRE 1344 816 1200 816
WIRE 1408 816 1408 768
WIRE 1408 816 1344 816
WIRE 1344 832 1344 816
FLAG 384 176 0
FLAG 1664 96 V+
FLAG 2512 496 0
FLAG 2512 368 Vn
FLAG 2208 336 V+
FLAG 176 64 V+
FLAG 176 192 0
FLAG 2144 384 Mr
FLAG 2032 128 Mi
FLAG 2896 64 Mo
FLAG 2688 64 Mi
FLAG 2912 448 Mr
FLAG 2800 672 Vr
FLAG 1664 160 0
FLAG 2208 400 0
FLAG 2144 496 Vr
FLAG 2272 352 Mo
FLAG 1760 128 BT_0
FLAG 1936 128 BT_0
FLAG 1344 560 V+
FLAG 1344 832 0
FLAG 1408 688 Vr
FLAG 1616 144 Vr
FLAG 576 176 0
FLAG 848 240 0
FLAG 848 -32 V+
FLAG 1584 -224 0
FLAG 720 176 Vr
FLAG 1664 -576 V+
FLAG 1664 -512 0
FLAG 1616 -528 Vr
FLAG 1584 -896 0
FLAG 896 -400 0
SYMBOL voltage 176 64 R0
WINDOW 123 0 0 Left 2
WINDOW 39 0 0 Left 2
SYMATTR InstName V1
SYMATTR Value 9
SYMBOL voltage 384 48 R0
WINDOW 123 24 124 Left 2
WINDOW 39 24 152 Left 2
SYMATTR Value2 AC 1
SYMATTR SpiceLine Rser=2k
SYMATTR InstName V2
SYMATTR Value SINE(0 0.5 1k)
SYMBOL cap 1088 96 R90
WINDOW 0 0 32 VBottom 2
WINDOW 3 32 32 VTop 2
SYMATTR InstName C4
SYMATTR Value 1µ
SYMBOL cap 2480 352 R90
WINDOW 0 0 32 VBottom 2
WINDOW 3 32 32 VTop 2
SYMATTR InstName C14
SYMATTR Value 10µ
SYMBOL res 2416 352 R90
WINDOW 0 0 56 VBottom 2
WINDOW 3 32 56 VTop 2
SYMATTR InstName R35
SYMATTR Value 1K
SYMBOL res 2496 384 R0
SYMATTR InstName R36
SYMATTR Value 100k
SYMBOL res 2144 112 R90
WINDOW 0 0 56 VBottom 2
WINDOW 3 32 56 VTop 2
SYMATTR InstName R27
SYMATTR Value 22k
SYMBOL res 2256 112 R90
WINDOW 0 0 56 VBottom 2
WINDOW 3 32 56 VTop 2
SYMATTR InstName R28
SYMATTR Value 22k
SYMBOL cap 2000 112 R90
WINDOW 0 0 32 VBottom 2
WINDOW 3 32 32 VTop 2
SYMATTR InstName C17
SYMATTR Value 10µ
SYMBOL res 2800 48 R90
WINDOW 0 0 56 VBottom 2
WINDOW 3 32 56 VTop 2
SYMATTR InstName R31
SYMATTR Value 20k
SYMBOL res 2912 48 R90
WINDOW 0 0 56 VBottom 2
WINDOW 3 32 56 VTop 2
SYMATTR InstName R32
SYMATTR Value 1
SYMBOL cap 2784 128 R0
SYMATTR InstName C7
SYMATTR Value 20n
SYMBOL res 2784 240 R0
SYMATTR InstName R39
SYMATTR Value 10k
SYMBOL res 2784 336 R0
SYMATTR InstName R40
SYMATTR Value {R1}
SYMBOL res 2784 448 R0
SYMATTR InstName R41
SYMATTR Value {R1}
SYMBOL res 2784 544 R0
SYMATTR InstName R42
SYMATTR Value 10k
SYMBOL cap 2896 464 R0
SYMATTR InstName C8
SYMATTR Value 10n
SYMBOL Opamps\\LT1352 1664 64 R0
SYMATTR InstName U2
SYMBOL Opamps\\LT1352 2208 304 R0
SYMATTR InstName U5
SYMBOL res 2128 384 R0
SYMATTR InstName R2
SYMATTR Value 200k
SYMBOL res 2688 336 R0
SYMATTR InstName R13
SYMATTR Value 200k
SYMBOL cap 2224 16 R90
WINDOW 0 0 32 VBottom 2
WINDOW 3 32 32 VTop 2
SYMATTR InstName C18
SYMATTR Value 100p
SYMBOL res 1232 96 R90
WINDOW 0 0 56 VBottom 2
WINDOW 3 32 56 VTop 2
SYMATTR InstName R5
SYMATTR Value 47k
SYMBOL res 1344 336 R90
WINDOW 0 0 56 VBottom 2
WINDOW 3 32 56 VTop 2
SYMATTR InstName R6
SYMATTR Value 125k
SYMBOL res 1456 336 R90
WINDOW 0 0 56 VBottom 2
WINDOW 3 32 56 VTop 2
SYMATTR InstName R7
SYMATTR Value 125k
SYMBOL res 1360 672 R180
WINDOW 0 36 76 Left 2
WINDOW 3 36 40 Left 2
SYMATTR InstName R9
SYMATTR Value 100k
SYMBOL res 1360 800 R180
WINDOW 0 36 76 Left 2
WINDOW 3 36 40 Left 2
SYMATTR InstName R10
SYMATTR Value 100k
SYMBOL cap 1392 704 R0
SYMATTR InstName C5
SYMATTR Value 10µ
SYMBOL cap 1184 704 R0
SYMATTR InstName C6
SYMATTR Value 10µ
SYMBOL cap 1216 336 R90
WINDOW 0 0 32 VBottom 2
WINDOW 3 32 32 VTop 2
SYMATTR InstName C9
SYMATTR Value 10n
SYMBOL cap 1536 336 R90
WINDOW 0 0 32 VBottom 2
WINDOW 3 32 32 VTop 2
SYMATTR InstName C10
SYMATTR Value 2n
SYMBOL cap 1680 0 R90
WINDOW 0 0 32 VBottom 2
WINDOW 3 32 32 VTop 2
SYMATTR InstName C11
SYMATTR Value 100p
SYMBOL res 1568 -128 R0
SYMATTR InstName R8
SYMATTR Value 20k
SYMBOL res 1776 -128 R0
SYMATTR InstName R11
SYMATTR Value 1
SYMBOL njf 800 -16 R0
SYMATTR InstName J1
SYMATTR Value J2N5457
SYMBOL res 832 128 R0
SYMATTR InstName R1
SYMATTR Value 20k
SYMBOL res 704 64 R0
SYMATTR InstName R3
SYMATTR Value 1Meg
SYMBOL res 560 64 R0
SYMATTR InstName R4
SYMATTR Value 220k
SYMBOL cap 688 32 R90
WINDOW 0 0 32 VBottom 2
WINDOW 3 32 32 VTop 2
SYMATTR InstName C1
SYMATTR Value 0.1µ
SYMBOL res 992 96 R90
WINDOW 0 0 56 VBottom 2
WINDOW 3 32 56 VTop 2
SYMATTR InstName R14
SYMATTR Value 100
SYMBOL res 1792 -240 R90
WINDOW 0 0 56 VBottom 2
WINDOW 3 32 56 VTop 2
SYMATTR InstName R12
SYMATTR Value 10k
SYMBOL cap 1664 -240 R90
WINDOW 0 0 32 VBottom 2
WINDOW 3 32 32 VTop 2
SYMATTR InstName C12
SYMATTR Value 10µ
SYMBOL cap 1712 -112 R0
SYMATTR InstName C13
SYMATTR Value 47n
SYMBOL cap 1088 -576 R90
WINDOW 0 0 32 VBottom 2
WINDOW 3 32 32 VTop 2
SYMATTR InstName C2
SYMATTR Value 1µ
SYMBOL Opamps\\LT1352 1664 -608 R0
SYMATTR InstName U1
SYMBOL res 1232 -576 R90
WINDOW 0 0 56 VBottom 2
WINDOW 3 32 56 VTop 2
SYMATTR InstName R15
SYMATTR Value 220k
SYMBOL res 1344 -336 R90
WINDOW 0 0 56 VBottom 2
WINDOW 3 32 56 VTop 2
SYMATTR InstName R16
SYMATTR Value {R1*10}
SYMBOL res 1456 -336 R90
WINDOW 0 0 56 VBottom 2
WINDOW 3 32 56 VTop 2
SYMATTR InstName R17
SYMATTR Value {R2*10}
SYMBOL cap 1216 -336 R90
WINDOW 0 0 32 VBottom 2
WINDOW 3 32 32 VTop 2
SYMATTR InstName C3
SYMATTR Value 1.8n
SYMBOL cap 1536 -336 R90
WINDOW 0 0 32 VBottom 2
WINDOW 3 32 32 VTop 2
SYMATTR InstName C15
SYMATTR Value 470p
SYMBOL cap 1680 -672 R90
WINDOW 0 0 32 VBottom 2
WINDOW 3 32 32 VTop 2
SYMATTR InstName C16
SYMATTR Value 68p
SYMBOL res 1568 -800 R0
SYMATTR InstName R18
SYMATTR Value 100k
SYMBOL res 1776 -800 R0
SYMATTR InstName R19
SYMATTR Value {R1}
SYMBOL res 1792 -912 R90
WINDOW 0 0 56 VBottom 2
WINDOW 3 32 56 VTop 2
SYMATTR InstName R20
SYMATTR Value 10k
SYMBOL cap 1664 -912 R90
WINDOW 0 0 32 VBottom 2
WINDOW 3 32 32 VTop 2
SYMATTR InstName C19
SYMATTR Value 10µ
SYMBOL cap 1712 -784 R0
SYMATTR InstName C20
SYMATTR Value 47n
SYMBOL voltage 896 -528 R0
WINDOW 123 24 124 Left 2
WINDOW 39 24 152 Left 2
SYMATTR Value2 AC 1
SYMATTR SpiceLine Rser=2k
SYMATTR InstName V3
SYMATTR Value SINE(0 0.5 1k)
SYMBOL res 1920 -128 R0
SYMATTR InstName R21
SYMATTR Value 200k
TEXT 112 -128 Left 2 !.inc ./jfet.lib
TEXT 112 -80 Left 2 !;tran 0 100m 0 1u
TEXT 112 -48 Left 2 !.ac dec 100 1 1meg
TEXT 2112 -128 Left 2 !.step param Rx list 1 2 3 4 5 6 7 8 9 10 11\n.param R1 table(Rx, 1, 1, 2, 10k, 3, 20k, 4, 30k, 5, 40k, 6, 50k, 7, 60k, 8, 70k, 9, 80k, 10, 90k, 11, 100k)\n.param R2 table(Rx, 1, 100k, 2, 90k, 3, 80k, 4, 70k, 5, 60k, 6, 50k, 7, 40k, 8, 30k, 9, 20k, 10, 10k, 11, 1)\n.param R3 table(Rx, 1, 20k, 2, 10k, 3, 5k, 4, 2.5k, 5, 160, 6, 80, 7, 400, 8, 20, 9, 1)
TEXT 112 -16 Left 2 !;noise V(Vn) V2 dec 100 1 100k
