Version 4
SHEET 1 5112 4608
WIRE 1600 -224 1584 -224
WIRE 1696 -224 1664 -224
WIRE 1792 -224 1776 -224
WIRE 1376 -128 1344 -128
WIRE 1472 -128 1440 -128
WIRE 1584 -128 1552 -128
WIRE 1616 -128 1584 -128
WIRE 1728 -128 1696 -128
WIRE 1792 -128 1792 -224
WIRE 1792 -128 1728 -128
WIRE 1584 -112 1584 -128
WIRE 1728 -112 1728 -128
WIRE 1792 -112 1792 -128
WIRE 880 -96 864 -96
WIRE 992 -96 944 -96
WIRE 864 0 864 -96
WIRE 864 0 848 0
WIRE 880 0 864 0
WIRE 992 0 992 -96
WIRE 992 0 960 0
WIRE 1584 16 1584 -32
WIRE 1616 16 1584 16
WIRE 1728 16 1728 -48
WIRE 1728 16 1680 16
WIRE 1792 16 1792 -32
WIRE 1792 16 1728 16
WIRE 2160 32 2144 32
WIRE 2272 32 2224 32
WIRE 2704 64 2688 64
WIRE 2800 64 2784 64
WIRE 2816 64 2800 64
WIRE 672 96 592 96
WIRE 752 96 736 96
WIRE 864 96 864 0
WIRE 864 96 832 96
WIRE 896 96 864 96
WIRE 592 112 592 96
WIRE 992 112 992 0
WIRE 992 112 960 112
WIRE 1008 112 992 112
WIRE 1104 112 1088 112
WIRE 1136 112 1104 112
WIRE 1344 112 1216 112
WIRE 1584 112 1584 16
WIRE 1584 112 1344 112
WIRE 1632 112 1584 112
WIRE 384 128 384 112
WIRE 896 128 864 128
WIRE 912 128 896 128
WIRE 1728 128 1728 16
WIRE 1728 128 1696 128
WIRE 1776 128 1728 128
WIRE 1872 128 1840 128
WIRE 1936 128 1872 128
WIRE 2032 128 2000 128
WIRE 2048 128 2032 128
WIRE 2144 128 2144 32
WIRE 2144 128 2128 128
WIRE 2160 128 2144 128
WIRE 2272 128 2272 32
WIRE 2272 128 2240 128
WIRE 2800 128 2800 64
WIRE 1632 144 1616 144
WIRE 1872 160 1872 128
WIRE 592 224 592 192
WIRE 1104 224 1104 112
WIRE 1152 224 1104 224
WIRE 1248 224 1216 224
WIRE 1344 224 1344 112
WIRE 1344 224 1328 224
WIRE 1360 224 1344 224
WIRE 1472 224 1440 224
WIRE 1728 224 1728 128
WIRE 1728 224 1536 224
WIRE 384 240 384 208
WIRE 1872 256 1872 240
WIRE 2800 256 2800 192
WIRE 1344 320 1200 320
WIRE 1344 336 1344 320
WIRE 2144 352 2144 128
WIRE 2176 352 2144 352
WIRE 2272 352 2272 128
WIRE 2800 352 2800 336
WIRE 2272 368 2272 352
WIRE 2272 368 2240 368
WIRE 2320 368 2272 368
WIRE 2416 368 2400 368
WIRE 2512 368 2480 368
WIRE 2176 384 2144 384
WIRE 2192 384 2176 384
WIRE 2512 400 2512 368
WIRE 1344 448 1344 416
WIRE 1408 448 1344 448
WIRE 2800 448 2800 432
WIRE 2912 448 2800 448
WIRE 1200 464 1200 320
WIRE 1344 464 1344 448
WIRE 1408 464 1408 448
WIRE 2800 464 2800 448
WIRE 2912 464 2912 448
WIRE 2512 496 2512 480
WIRE 2800 560 2800 544
WIRE 1200 576 1200 528
WIRE 1344 576 1344 544
WIRE 1344 576 1200 576
WIRE 1408 576 1408 528
WIRE 1408 576 1344 576
WIRE 1344 592 1344 576
WIRE 2800 656 2800 640
WIRE 2912 656 2912 528
WIRE 2912 656 2800 656
WIRE 2800 672 2800 656
FLAG 592 224 0
FLAG 1664 96 V+
FLAG 2512 496 0
FLAG 2512 368 Vn
FLAG 2208 336 V+
FLAG 384 112 V+
FLAG 384 240 0
FLAG 2144 384 Mr
FLAG 2032 128 Mi
FLAG 2896 64 Mo
FLAG 2688 64 Mi
FLAG 2912 448 Mr
FLAG 2800 672 Vr
FLAG 1664 160 0
FLAG 2208 400 0
FLAG 2272 352 Mo
FLAG 1344 320 V+
FLAG 1344 592 0
FLAG 1408 448 Vr
FLAG 1616 144 Vr
FLAG 1584 -224 0
FLAG 1344 -128 0
FLAG 928 80 V+
FLAG 928 144 0
FLAG 592 96 IN
FLAG 864 128 Vr
FLAG 1872 256 0
SYMBOL voltage 384 112 R0
WINDOW 123 0 0 Left 2
WINDOW 39 0 0 Left 2
SYMATTR InstName V1
SYMATTR Value 9
SYMBOL voltage 592 96 R0
WINDOW 123 24 124 Left 2
WINDOW 39 24 152 Left 2
SYMATTR Value2 AC 1
SYMATTR SpiceLine Rser=2k
SYMATTR InstName V2
SYMATTR Value SINE(0 0.5 1k)
SYMBOL cap 736 80 R90
WINDOW 0 0 32 VBottom 2
WINDOW 3 32 32 VTop 2
SYMATTR InstName C4
SYMATTR Value 0.1µ
SYMBOL cap 2480 352 R90
WINDOW 0 0 32 VBottom 2
WINDOW 3 32 32 VTop 2
SYMATTR InstName C14
SYMATTR Value 1µ
SYMBOL res 2416 352 R90
WINDOW 0 0 56 VBottom 2
WINDOW 3 32 56 VTop 2
SYMATTR InstName R35
SYMATTR Value 1K
SYMBOL res 2496 384 R0
SYMATTR InstName R36
SYMATTR Value 500k
SYMBOL res 2144 112 R90
WINDOW 0 0 56 VBottom 2
WINDOW 3 32 56 VTop 2
SYMATTR InstName R27
SYMATTR Value 20k
SYMBOL res 2256 112 R90
WINDOW 0 0 56 VBottom 2
WINDOW 3 32 56 VTop 2
SYMATTR InstName R28
SYMATTR Value 20k
SYMBOL cap 2000 112 R90
WINDOW 0 0 32 VBottom 2
WINDOW 3 32 32 VTop 2
SYMATTR InstName C17
SYMATTR Value 10µ
SYMBOL res 2800 48 R90
WINDOW 0 0 56 VBottom 2
WINDOW 3 32 56 VTop 2
SYMATTR InstName R31
SYMATTR Value 20k
SYMBOL res 2912 48 R90
WINDOW 0 0 56 VBottom 2
WINDOW 3 32 56 VTop 2
SYMATTR InstName R32
SYMATTR Value 1
SYMBOL cap 2784 128 R0
SYMATTR InstName C7
SYMATTR Value 10n
SYMBOL res 2784 240 R0
SYMATTR InstName R39
SYMATTR Value 10k
SYMBOL res 2784 336 R0
SYMATTR InstName R40
SYMATTR Value {R2}
SYMBOL res 2784 448 R0
SYMATTR InstName R41
SYMATTR Value {R2}
SYMBOL res 2784 544 R0
SYMATTR InstName R42
SYMATTR Value 10k
SYMBOL cap 2896 464 R0
SYMATTR InstName C8
SYMATTR Value 4.7n
SYMBOL Opamps\\LT1352 1664 64 R0
SYMATTR InstName U2
SYMBOL Opamps\\LT1352 2208 304 R0
SYMATTR InstName U5
SYMBOL cap 2224 16 R90
WINDOW 0 0 32 VBottom 2
WINDOW 3 32 32 VTop 2
SYMATTR InstName C18
SYMATTR Value 100p
SYMBOL res 1232 96 R90
WINDOW 0 0 56 VBottom 2
WINDOW 3 32 56 VTop 2
SYMATTR InstName R5
SYMATTR Value 220k
SYMBOL res 1344 208 R90
WINDOW 0 0 56 VBottom 2
WINDOW 3 32 56 VTop 2
SYMATTR InstName R6
SYMATTR Value {R2*10}
SYMBOL res 1456 208 R90
WINDOW 0 0 56 VBottom 2
WINDOW 3 32 56 VTop 2
SYMATTR InstName R7
SYMATTR Value {R1*10}
SYMBOL res 1360 432 R180
WINDOW 0 36 76 Left 2
WINDOW 3 36 40 Left 2
SYMATTR InstName R9
SYMATTR Value 47k
SYMBOL res 1360 560 R180
WINDOW 0 36 76 Left 2
WINDOW 3 36 40 Left 2
SYMATTR InstName R10
SYMATTR Value 47k
SYMBOL cap 1392 464 R0
SYMATTR InstName C5
SYMATTR Value 10µ
SYMBOL cap 1184 464 R0
SYMATTR InstName C6
SYMATTR Value 10µ
SYMBOL cap 1216 208 R90
WINDOW 0 0 32 VBottom 2
WINDOW 3 32 32 VTop 2
SYMATTR InstName C9
SYMATTR Value 1.8n
SYMBOL cap 1536 208 R90
WINDOW 0 0 32 VBottom 2
WINDOW 3 32 32 VTop 2
SYMATTR InstName C10
SYMATTR Value 470p
SYMBOL cap 1680 0 R90
WINDOW 0 0 32 VBottom 2
WINDOW 3 32 32 VTop 2
SYMATTR InstName C11
SYMATTR Value 100p
SYMBOL res 1568 -128 R0
SYMATTR InstName R8
SYMATTR Value 100k
SYMBOL res 1776 -128 R0
SYMATTR InstName R11
SYMATTR Value {R1*2.5}
SYMBOL res 1792 -240 R90
WINDOW 0 0 56 VBottom 2
WINDOW 3 32 56 VTop 2
SYMATTR InstName R12
SYMATTR Value 10k
SYMBOL cap 1664 -240 R90
WINDOW 0 0 32 VBottom 2
WINDOW 3 32 32 VTop 2
SYMATTR InstName C12
SYMATTR Value 10µ
SYMBOL cap 1712 -112 R0
SYMATTR InstName C13
SYMATTR Value 47n
SYMBOL res 1568 -144 R90
WINDOW 0 0 56 VBottom 2
WINDOW 3 32 56 VTop 2
SYMATTR InstName R15
SYMATTR Value 4.7k
SYMBOL cap 1440 -144 R90
WINDOW 0 0 32 VBottom 2
WINDOW 3 32 32 VTop 2
SYMATTR InstName C2
SYMATTR Value 2.7n
SYMBOL res 1712 -144 R90
WINDOW 0 0 56 VBottom 2
WINDOW 3 32 56 VTop 2
SYMATTR InstName R16
SYMATTR Value 10k
SYMBOL res 848 80 R90
WINDOW 0 0 56 VBottom 2
WINDOW 3 32 56 VTop 2
SYMATTR InstName R1
SYMATTR Value 470k
SYMBOL res 976 -16 R90
WINDOW 0 0 56 VBottom 2
WINDOW 3 32 56 VTop 2
SYMATTR InstName R2
SYMATTR Value 470k
SYMBOL Opamps\\LT1352 928 48 R0
SYMATTR InstName U1
SYMBOL res 1104 96 R90
WINDOW 0 0 56 VBottom 2
WINDOW 3 32 56 VTop 2
SYMATTR InstName R3
SYMATTR Value 100
SYMBOL res 1856 144 R0
SYMATTR InstName R4
SYMATTR Value 100k
SYMBOL cap 1840 112 R90
WINDOW 0 0 32 VBottom 2
WINDOW 3 32 32 VTop 2
SYMATTR InstName C1
SYMATTR Value 10µ
SYMBOL cap 944 -112 R90
WINDOW 0 0 32 VBottom 2
WINDOW 3 32 32 VTop 2
SYMATTR InstName C3
SYMATTR Value 10p
TEXT 320 -80 Left 2 !.inc ./jfet.lib
TEXT 320 -32 Left 2 !;tran 0 100m 0 1u
TEXT 320 0 Left 2 !.ac dec 100 1 100k
TEXT 2112 -128 Left 2 !.step param Rx list 1 2 3 4 5 6 7 8 9 10 11\n.param R2 table(Rx, 1, 1, 2, 200, 3, 400, 4, 800, 5, 1.5k, 6, 3k, 7, 6k, 8, 12k, 9, 25k, 10, 50k, 11, 100k)\n.param R1 table(Rx, 1, 100k, 2, 99.8k, 3, 99.6k, 4, 99.2k, 5, 98.5k, 6, 97k, 7, 94k, 8, 88k, 9, 75k, 10, 50k, 11, 1)
TEXT 320 32 Left 2 !;noise V(Vn) V2 dec 100 1 100k
TEXT 1224 208 Left 2 ;3
TEXT 1352 152 Left 2 ;2
TEXT 1448 208 Left 2 ;1
