Version 4
SHEET 1 1080 680
WIRE 944 -48 896 -48
WIRE 1040 -48 1024 -48
WIRE 672 48 656 48
WIRE 784 48 752 48
WIRE 800 48 784 48
WIRE 896 48 896 -48
WIRE 896 48 880 48
WIRE 944 48 896 48
WIRE 1040 64 1040 -48
WIRE 1040 64 1008 64
WIRE 944 80 928 80
WIRE 656 96 656 48
WIRE 784 96 784 48
WIRE 928 96 928 80
WIRE 656 192 656 176
WIRE 784 192 784 176
WIRE 672 256 656 256
WIRE 784 256 752 256
WIRE 800 256 784 256
WIRE 896 256 896 48
WIRE 896 256 880 256
WIRE -48 288 -48 272
WIRE -48 288 -64 288
WIRE 48 288 48 272
WIRE 48 288 -48 288
WIRE 160 288 160 272
WIRE 160 288 48 288
WIRE -48 304 -48 288
WIRE 656 304 656 256
WIRE 784 304 784 256
WIRE 656 400 656 384
WIRE 784 400 784 384
FLAG -48 192 V+
FLAG -48 384 V-
FLAG -64 288 0
FLAG 48 192 Vi1
FLAG 160 192 Vi2
FLAG 928 96 0
FLAG 784 192 0
FLAG 656 48 Vi1
FLAG 784 400 0
FLAG 656 256 Vi2
FLAG 656 400 0
FLAG 656 192 0
SYMBOL voltage -48 176 R0
SYMATTR InstName V1
SYMATTR Value 9
SYMBOL voltage -48 288 R0
SYMATTR InstName V2
SYMATTR Value 9
SYMBOL voltage 48 176 R0
WINDOW 123 24 124 Left 2
WINDOW 39 0 0 Left 2
SYMATTR InstName V3
SYMATTR Value SINE(0 1 1k)
SYMATTR Value2 AC 1 0
SYMBOL voltage 160 176 R0
WINDOW 123 24 124 Left 2
WINDOW 39 0 0 Left 2
SYMATTR InstName V4
SYMATTR Value SINE(0 1 1k)
SYMATTR Value2 AC 1 0
SYMBOL Opamps\\LT1638 976 0 R0
SYMATTR InstName U1
SYMBOL res 1040 -64 R90
WINDOW 0 0 56 VBottom 2
WINDOW 3 32 56 VTop 2
SYMATTR InstName R1
SYMATTR Value 4.99k
SYMBOL res 896 32 R90
WINDOW 0 0 56 VBottom 2
WINDOW 3 32 56 VTop 2
SYMATTR InstName R2
SYMATTR Value 4.99k
SYMBOL res 768 32 R90
WINDOW 0 0 56 VBottom 2
WINDOW 3 32 56 VTop 2
SYMATTR InstName R3
SYMATTR Value {Rx1}
SYMBOL res 768 80 R0
SYMATTR InstName R5
SYMATTR Value {Rx2}
SYMBOL res 768 240 R90
WINDOW 0 0 56 VBottom 2
WINDOW 3 32 56 VTop 2
SYMATTR InstName R4
SYMATTR Value {Rx2}
SYMBOL res 768 288 R0
SYMATTR InstName R6
SYMATTR Value {Rx1}
SYMBOL res 896 240 R90
WINDOW 0 0 56 VBottom 2
WINDOW 3 32 56 VTop 2
SYMATTR InstName R7
SYMATTR Value 4.99k
SYMBOL res 640 80 R0
SYMATTR InstName R8
SYMATTR Value 11.1k
SYMBOL res 640 288 R0
SYMATTR InstName R9
SYMATTR Value 11.1k
TEXT -184 -56 Left 2 !.step param Rx list 1 2 3 4 5 6\n.param Rx1 table(Rx, 1, 1, 2, 1.76k, 3, 6k, 4, 16.2k, 5, 40.8k, 6, 100k)\n.param Rx2 table(Rx, 1, 100k, 2, 40.8k, 3, 16.2k, 4, 3.6k, 5, 1.76k, 6, 1)
TEXT -186 456 Left 2 !.ac dec 100 1 1meg
